Version 4.1
SHEET 1 1548 680
WIRE 112 128 96 128
WIRE 192 128 176 128
WIRE 288 128 192 128
WIRE 304 128 288 128
WIRE 400 128 368 128
WIRE 528 128 400 128
WIRE 192 208 96 208
WIRE 208 208 192 208
WIRE 288 208 272 208
WIRE 400 208 288 208
WIRE 416 208 400 208
WIRE 528 208 480 208
FLAG 96 208 0
SYMBOL voltage 96 112 R0
WINDOW 123 -115 74 Left 2
WINDOW 39 0 0 Left 0
WINDOW 3 -190 31 Left 2
SYMATTR Value2 AC 1
SYMATTR InstName V1
SYMATTR Value SINE(0 2 400 0 0 0 30)
SYMBOL 1n4002 192 176 R0
WINDOW 0 -139 -287 Left 2
WINDOW 3 -157 -319 Left 2
WINDOW 39 -815 -223 Left 2
SYMATTR InstName U1
SYMBOL 1n4002 288 160 R180
WINDOW 0 48 0 Left 2
WINDOW 3 -213 142 Left 2
WINDOW 39 76 140 Left 2
SYMATTR InstName U2
SYMBOL 1n4002 400 176 R0
WINDOW 0 138 -246 Left 2
WINDOW 3 126 -370 Left 2
WINDOW 39 -779 -105 Left 2
SYMATTR InstName U3
SYMBOL 1n4002 528 160 R180
WINDOW 0 -43 189 Left 2
WINDOW 3 16 193 Left 2
WINDOW 39 -9 114 Left 2
SYMATTR InstName U4
SYMBOL cap 208 224 R270
WINDOW 0 32 32 VTop 2
WINDOW 3 0 32 VBottom 2
SYMATTR InstName C1
SYMATTR Value 46n
SYMATTR SpiceLine Rpar=100meg
SYMBOL cap 304 144 R270
WINDOW 0 32 32 VTop 2
WINDOW 3 0 32 VBottom 2
SYMATTR InstName C2
SYMATTR Value 46n
SYMATTR SpiceLine Rpar=100meg
SYMBOL cap 416 224 R270
WINDOW 0 32 32 VTop 2
WINDOW 3 0 32 VBottom 2
SYMATTR InstName C3
SYMATTR Value 46n
SYMATTR SpiceLine Rpar=100meg
SYMBOL cap 176 112 R90
WINDOW 0 0 32 VBottom 2
WINDOW 3 32 32 VTop 2
SYMATTR InstName C4
SYMATTR Value 46n
SYMATTR SpiceLine Rpar=100meg
TEXT -280 360 Left 2 !.tran 0 1 0
