Version 4.1
SHEET 1 880 680
WIRE 192 128 96 128
WIRE 320 128 272 128
WIRE 176 208 96 208
WIRE 208 208 176 208
WIRE 320 208 320 128
WIRE 320 208 288 208
WIRE 176 304 176 208
WIRE 224 304 176 304
WIRE 320 304 320 208
WIRE 320 304 288 304
FLAG 96 208 0
SYMBOL voltage 96 112 R0
WINDOW 123 24 124 Left 2
WINDOW 39 0 0 Left 0
SYMATTR InstName V1
SYMATTR Value SINE(0 2 400)
SYMATTR Value2 AC 1
SYMBOL res 304 192 R90
WINDOW 0 0 56 VBottom 2
WINDOW 3 32 56 VTop 2
SYMATTR InstName R1
SYMATTR Value 26.6k
SYMBOL 1n4002 224 128 R90
WINDOW 0 -16 -8 VBottom 2
WINDOW 3 -54 71 VTop 2
WINDOW 39 -98 -44 VTop 2
SYMATTR InstName U1
SYMBOL cap 288 288 R90
WINDOW 0 0 32 VBottom 2
WINDOW 3 32 32 VTop 2
SYMATTR InstName C1
SYMATTR Value 197n
TEXT -280 360 Left 2 !.tran 0 10 0
