Version 4.1
SHEET 1 880 680
WIRE 192 128 96 128
WIRE 320 128 272 128
WIRE 208 208 96 208
WIRE 320 208 320 128
WIRE 320 208 288 208
FLAG 96 208 0
SYMBOL voltage 96 112 R0
WINDOW 123 24 124 Left 2
WINDOW 39 0 0 Left 0
SYMATTR InstName V1
SYMATTR Value SINE(0 2 400)
SYMATTR Value2 AC 1
SYMBOL res 304 192 R90
WINDOW 0 0 56 VBottom 2
WINDOW 3 32 56 VTop 2
SYMATTR InstName R1
SYMATTR Value 26.6k
SYMBOL 1n4002 224 128 R90
WINDOW 0 -16 -8 VBottom 2
WINDOW 3 16 -8 VTop 2
WINDOW 39 -102 -13 VTop 2
SYMATTR InstName U1
TEXT -312 264 Left 2 !.tran 1
