Version 4.1
SHEET 1 880 680
WIRE 128 96 32 96
WIRE 240 96 208 96
WIRE 368 96 240 96
WIRE 304 128 304 112
WIRE 32 144 32 96
WIRE 240 144 240 96
WIRE 272 144 240 144
WIRE 448 160 448 96
WIRE 448 160 336 160
WIRE 272 176 240 176
WIRE 240 192 240 176
WIRE 304 208 304 192
WIRE 32 256 32 240
WIRE 144 256 144 240
WIRE 32 368 32 336
WIRE 144 368 144 336
FLAG 32 144 0
FLAG 304 112 V+
FLAG 304 208 V-
FLAG 32 240 V+
FLAG 240 272 0
FLAG 32 368 0
FLAG 144 240 V-
FLAG 144 368 0
SYMBOL OpAmps\\LM741 304 96 R0
SYMATTR InstName U1
SYMBOL voltage 240 176 R0
WINDOW 123 27 119 Left 2
WINDOW 39 0 0 Left 0
SYMATTR Value2 AC 1
SYMATTR InstName V1
SYMATTR Value SINE(0 200m)
SYMBOL res 224 80 R90
WINDOW 0 0 56 VBottom 2
WINDOW 3 32 56 VTop 2
SYMATTR InstName R1
SYMATTR Value 26.5k
SYMBOL res 464 80 R90
WINDOW 0 0 56 VBottom 2
WINDOW 3 32 56 VTop 2
SYMATTR InstName R2
SYMATTR Value 266k
SYMBOL voltage 32 240 R0
WINDOW 123 0 0 Left 0
WINDOW 39 0 0 Left 0
SYMATTR InstName V2
SYMATTR Value 12
SYMBOL voltage 144 352 R180
WINDOW 0 24 96 Left 2
WINDOW 3 24 16 Left 2
WINDOW 123 0 0 Left 0
WINDOW 39 0 0 Left 0
SYMATTR InstName V3
SYMATTR Value 12
TEXT 448 136 Left 2 !.ac dec 1000 1 1000Meg\n;.tran 0 100 0
