Version 4.1
SHEET 1 880 680
WIRE 208 -32 128 -32
WIRE 128 16 128 -32
WIRE 368 16 368 -32
WIRE 128 128 128 96
WIRE 368 128 368 80
WIRE 368 128 128 128
FLAG 128 128 0
SYMBOL voltage 128 0 R0
WINDOW 123 24 124 Left 2
WINDOW 39 0 0 Left 0
SYMATTR Value2 AC 1
SYMATTR InstName V1
SYMATTR Value SINE(0 2 1340)
SYMBOL res 304 -48 R90
WINDOW 0 0 56 VBottom 2
WINDOW 3 32 56 VTop 2
SYMATTR InstName R2
SYMATTR Value 9.9
SYMBOL cap 352 16 R0
SYMATTR InstName C1
SYMATTR Value 46.8n
SYMBOL ind 384 -48 R90
WINDOW 0 5 56 VBottom 2
WINDOW 3 30 62 VTop 2
SYMATTR InstName L1
SYMATTR Value 104.9m
TEXT 368 -8 Left 2 !.ac dec 1000 1 100Meg
